** u_bend_path: 0.5 mm plies, U-clamp tip, circular-arc U poses
** L=100.0 W=20.0 t_ply=0.5 nLen=32 nWid=2
*NODE, NSET=all_nodes
1, 0.00000000, 0.00000000, 0.00000000
2, 20.00000000, 0.00000000, 0.00000000
3, 20.00000000, 100.00000000, 0.00000000
4, 0.00000000, 100.00000000, 0.00000000
5, 10.00000000, 0.00000000, 0.00000000
6, 5.00000000, 0.00000000, 0.00000000
7, 15.00000000, 0.00000000, 0.00000000
8, 20.00000000, 3.12500000, 0.00000000
9, 20.00000000, 6.25000000, 0.00000000
10, 20.00000000, 9.37500000, 0.00000000
11, 20.00000000, 12.50000000, 0.00000000
12, 20.00000000, 15.62500000, 0.00000000
13, 20.00000000, 18.75000000, 0.00000000
14, 20.00000000, 21.87500000, 0.00000000
15, 20.00000000, 25.00000000, 0.00000000
16, 20.00000000, 28.12500000, 0.00000000
17, 20.00000000, 31.25000000, 0.00000000
18, 20.00000000, 34.37500000, 0.00000000
19, 20.00000000, 37.50000000, 0.00000000
20, 20.00000000, 40.62500000, 0.00000000
** ... 241 like lines cut
*ELEMENT, TYPE=S8R, ELSET=blade
5, 1, 5, 137, 104, 6, 168, 169, 136
6, 104, 137, 138, 103, 169, 170, 171, 135
7, 103, 138, 139, 102, 171, 172, 173, 134
8, 102, 139, 140, 101, 173, 174, 175, 133
9, 101, 140, 141, 100, 175, 176, 177, 132
10, 100, 141, 142, 99, 177, 178, 179, 131
11, 99, 142, 143, 98, 179, 180, 181, 130
12, 98, 143, 144, 97, 181, 182, 183, 129
13, 97, 144, 145, 96, 183, 184, 185, 128
14, 96, 145, 146, 95, 185, 186, 187, 127
15, 95, 146, 147, 94, 187, 188, 189, 126
16, 94, 147, 148, 93, 189, 190, 191, 125
17, 93, 148, 149, 92, 191, 192, 193, 124
18, 92, 149, 150, 91, 193, 194, 195, 123
19, 91, 150, 151, 90, 195, 196, 197, 122
20, 90, 151, 152, 89, 197, 198, 199, 121
21, 89, 152, 153, 88, 199, 200, 201, 120
22, 88, 153, 154, 87, 201, 202, 203, 119
23, 87, 154, 155, 86, 203, 204, 205, 118
24, 86, 155, 156, 85, 205, 206, 207, 117
** ... 44 like lines cut
*NSET, NSET=fixed_end
5, 6, 7
*NSET, NSET=far_face
71, 72, 73
*NSET, NSET=centerline
230, 71
*MATERIAL, NAME=cfrp
*ELASTIC, TYPE=ENGINEERING CONSTANTS
135000., 9000., 9000., 0.30, 0.30, 0.45, 4500., 4500.,
3000.,
*DENSITY
1.6E-9
*ORIENTATION, NAME=ori_p00, SYSTEM=RECTANGULAR
0., 1., 0., -1., 0., 0.
*ORIENTATION, NAME=ori_p90, SYSTEM=RECTANGULAR
1., 0., 0., 0., 1., 0.
*SHELL SECTION, COMPOSITE, ELSET=blade
0.5, , cfrp, ori_p00
0.5, , cfrp, ori_p90
0.5, , cfrp, ori_p90
0.5, , cfrp, ori_p00
*BOUNDARY
fixed_end, 1, 6
*STEP, NLGEOM, INC=8000
*STATIC
0.005, 1.0, 1.E-8, 0.02
*BOUNDARY
71, 1, 1, 0.0000000000
71, 2, 2, -0.1268756046
71, 3, 3, 4.3605547823
72, 1, 1, 0.0000000000
72, 2, 2, -0.1268756046
72, 3, 3, 4.3605547823
73, 1, 1, 0.0000000000
73, 2, 2, -0.1268756046
73, 3, 3, 4.3605547823
*NODE PRINT, NSET=far_face, TOTALS=YES
RF
*NODE PRINT, NSET=centerline
U
*END STEP
*STEP, NLGEOM, INC=8000
*STATIC
0.005, 1.0, 1.E-8, 0.02
*BOUNDARY
71, 1, 1, 0.0000000000
71, 2, 2, -0.5069229955
71, 3, 3, 8.7045163372
72, 1, 1, 0.0000000000
72, 2, 2, -0.5069229955
72, 3, 3, 8.7045163372
73, 1, 1, 0.0000000000
73, 2, 2, -0.5069229955
73, 3, 3, 8.7045163372
*NODE PRINT, NSET=far_face, TOTALS=YES
RF
*NODE PRINT, NSET=centerline
U
*END STEP
*STEP, NLGEOM, INC=8000
*STATIC
0.005, 1.0, 1.E-8, 0.02
*BOUNDARY
71, 1, 1, 0.0000000000
71, 2, 2, -1.1384070535
71, 3, 3, 13.0153756269
72, 1, 1, 0.0000000000
72, 2, 2, -1.1384070535
72, 3, 3, 13.0153756269
73, 1, 1, 0.0000000000
73, 2, 2, -1.1384070535
73, 3, 3, 13.0153756269
*NODE PRINT, NSET=far_face, TOTALS=YES
RF
*NODE PRINT, NSET=centerline
U
*END STEP
*STEP, NLGEOM, INC=8000
*STATIC
0.005, 1.0, 1.E-8, 0.02
*BOUNDARY
71, 1, 1, 0.0000000000
71, 2, 2, -2.0184463949
71, 3, 3, 17.2767915123
72, 1, 1, 0.0000000000
72, 2, 2, -2.0184463949
72, 3, 3, 17.2767915123
73, 1, 1, 0.0000000000
73, 2, 2, -2.0184463949
73, 3, 3, 17.2767915123
*NODE PRINT, NSET=far_face, TOTALS=YES
RF
*NODE PRINT, NSET=centerline
U
*END STEP
*STEP, NLGEOM, INC=8000
*STATIC
0.005, 1.0, 1.E-8, 0.02
*BOUNDARY
71, 1, 1, 0.0000000000
71, 2, 2, -3.1430290284
71, 3, 3, 21.4726735042
72, 1, 1, 0.0000000000
72, 2, 2, -3.1430290284
72, 3, 3, 21.4726735042
73, 1, 1, 0.0000000000
73, 2, 2, -3.1430290284
73, 3, 3, 21.4726735042
*NODE PRINT, NSET=far_face, TOTALS=YES
RF
*NODE PRINT, NSET=centerline
U
*END STEP
*STEP, NLGEOM, INC=8000
*STATIC
0.005, 1.0, 1.E-8, 0.02
*BOUNDARY
71, 1, 1, 0.0000000000
71, 2, 2, -4.5070341449
71, 3, 3, 25.5872630837
72, 1, 1, 0.0000000000
72, 2, 2, -4.5070341449
72, 3, 3, 25.5872630837
73, 1, 1, 0.0000000000
73, 2, 2, -4.5070341449
73, 3, 3, 25.5872630837
*NODE PRINT, NSET=far_face, TOTALS=YES
RF
*NODE PRINT, NSET=centerline
U
*END STEP
*STEP, NLGEOM, INC=8000
*STATIC
0.005, 1.0, 1.E-8, 0.02
*BOUNDARY
71, 1, 1, 0.0000000000
71, 2, 2, -6.1042599112
71, 3, 3, 29.6052131309
72, 1, 1, 0.0000000000
72, 2, 2, -6.1042599112
72, 3, 3, 29.6052131309
73, 1, 1, 0.0000000000
73, 2, 2, -6.1042599112
73, 3, 3, 29.6052131309
*NODE PRINT, NSET=far_face, TOTALS=YES
RF
*NODE PRINT, NSET=centerline
U
*END STEP
*STEP, NLGEOM, INC=8000
*STATIC
0.005, 1.0, 1.E-8, 0.02
*BOUNDARY
71, 1, 1, 0.0000000000
71, 2, 2, -7.9274571041
71, 3, 3, 33.5116650073
72, 1, 1, 0.0000000000
72, 2, 2, -7.9274571041
72, 3, 3, 33.5116650073
73, 1, 1, 0.0000000000
73, 2, 2, -7.9274571041
73, 3, 3, 33.5116650073
*NODE PRINT, NSET=far_face, TOTALS=YES
RF
*NODE PRINT, NSET=centerline
U
*END STEP
*STEP, NLGEOM, INC=8000
*STATIC
0.005, 1.0, 1.E-8, 0.02
*BOUNDARY
71, 1, 1, 0.0000000000
71, 2, 2, -9.9683683843
71, 3, 3, 37.2923228578
72, 1, 1, 0.0000000000
72, 2, 2, -9.9683683843
72, 3, 3, 37.2923228578
73, 1, 1, 0.0000000000
73, 2, 2, -9.9683683843
73, 3, 3, 37.2923228578
*NODE PRINT, NSET=far_face, TOTALS=YES
RF
*NODE PRINT, NSET=centerline
U
*END STEP
*STEP, NLGEOM, INC=8000
*STATIC
0.005, 1.0, 1.E-8, 0.02
*BOUNDARY
71, 1, 1, 0.0000000000
71, 2, 2, -12.2177729797
71, 3, 3, 40.9335247095
72, 1, 1, 0.0000000000
72, 2, 2, -12.2177729797
72, 3, 3, 40.9335247095
73, 1, 1, 0.0000000000
73, 2, 2, -12.2177729797
73, 3, 3, 40.9335247095
*NODE PRINT, NSET=far_face, TOTALS=YES
RF
*NODE PRINT, NSET=centerline
U
*END STEP
*STEP, NLGEOM, INC=8000
*STATIC
0.005, 1.0, 1.E-8, 0.02
*BOUNDARY
71, 1, 1, 0.0000000000
71, 2, 2, -14.6655365140
71, 3, 3, 44.4223099673
72, 1, 1, 0.0000000000
72, 2, 2, -14.6655365140
72, 3, 3, 44.4223099673
73, 1, 1, 0.0000000000
73, 2, 2, -14.6655365140
73, 3, 3, 44.4223099673
*NODE PRINT, NSET=far_face, TOTALS=YES
RF
*NODE PRINT, NSET=centerline
U
*END STEP
*STEP, NLGEOM, INC=8000
*STATIC
0.005, 1.0, 1.E-8, 0.02
*BOUNDARY
71, 1, 1, 0.0000000000
71, 2, 2, -17.3006656867
71, 3, 3, 47.7464829276
72, 1, 1, 0.0000000000
72, 2, 2, -17.3006656867
72, 3, 3, 47.7464829276
73, 1, 1, 0.0000000000
73, 2, 2, -17.3006656867
73, 3, 3, 47.7464829276
*NODE PRINT, NSET=far_face, TOTALS=YES
RF
*NODE PRINT, NSET=centerline
U
*END STEP
*STEP, NLGEOM, INC=8000
*STATIC
0.005, 1.0, 1.E-8, 0.02
*BOUNDARY
71, 1, 1, 0.0000000000
71, 2, 2, -20.1113674815
71, 3, 3, 50.8946719541
72, 1, 1, 0.0000000000
72, 2, 2, -20.1113674815
72, 3, 3, 50.8946719541
73, 1, 1, 0.0000000000
73, 2, 2, -20.1113674815
73, 3, 3, 50.8946719541
*NODE PRINT, NSET=far_face, TOTALS=YES
RF
*NODE PRINT, NSET=centerline
U
*END STEP
*STEP, NLGEOM, INC=8000
*STATIC
0.005, 1.0, 1.E-8, 0.02
*BOUNDARY
71, 1, 1, 0.0000000000
71, 2, 2, -23.0851125563
71, 3, 3, 53.8563839887
72, 1, 1, 0.0000000000
72, 2, 2, -23.0851125563
72, 3, 3, 53.8563839887
73, 1, 1, 0.0000000000
73, 2, 2, -23.0851125563
73, 3, 3, 53.8563839887
*NODE PRINT, NSET=far_face, TOTALS=YES
RF
*NODE PRINT, NSET=centerline
U
*END STEP
*STEP, NLGEOM, INC=8000
*STATIC
0.005, 1.0, 1.E-8, 0.02
*BOUNDARY
71, 1, 1, 0.0000000000
71, 2, 2, -26.2087024413
71, 3, 3, 56.6220540948
72, 1, 1, 0.0000000000
72, 2, 2, -26.2087024413
72, 3, 3, 56.6220540948
73, 1, 1, 0.0000000000
73, 2, 2, -26.2087024413
73, 3, 3, 56.6220540948
*NODE PRINT, NSET=far_face, TOTALS=YES
RF
*NODE PRINT, NSET=centerline
U
*END STEP
*STEP, NLGEOM, INC=8000
*STATIC
0.005, 1.0, 1.E-8, 0.02
*BOUNDARY
71, 1, 1, 0.0000000000
71, 2, 2, -29.4683401508
71, 3, 3, 59.1830897658
72, 1, 1, 0.0000000000
72, 2, 2, -29.4683401508
72, 3, 3, 59.1830897658
73, 1, 1, 0.0000000000
73, 2, 2, -29.4683401508
73, 3, 3, 59.1830897658
*NODE PRINT, NSET=far_face, TOTALS=YES
RF
*NODE PRINT, NSET=centerline
U
*END STEP
*STEP, NLGEOM, INC=8000
*STATIC
0.005, 1.0, 1.E-8, 0.02
*BOUNDARY
71, 1, 1, 0.0000000000
71, 2, 2, -32.8497037953
71, 3, 3, 61.5319097568
72, 1, 1, 0.0000000000
72, 2, 2, -32.8497037953
72, 3, 3, 61.5319097568
73, 1, 1, 0.0000000000
73, 2, 2, -32.8497037953
73, 3, 3, 61.5319097568
*NODE PRINT, NSET=far_face, TOTALS=YES
RF
*NODE PRINT, NSET=centerline
U
*END STEP
*STEP, NLGEOM, INC=8000
*STATIC
0.005, 1.0, 1.E-8, 0.02
*BOUNDARY
71, 1, 1, 0.0000000000
71, 2, 2, -36.3380227632
71, 3, 3, 63.6619772368
72, 1, 1, 0.0000000000
72, 2, 2, -36.3380227632
72, 3, 3, 63.6619772368
73, 1, 1, 0.0000000000
73, 2, 2, -36.3380227632
73, 3, 3, 63.6619772368
*NODE PRINT, NSET=far_face, TOTALS=YES
RF
*NODE PRINT, NSET=centerline
U
*END STEP
*STEP, NLGEOM, INC=8000
*STATIC
0.005, 1.0, 1.E-8, 0.02
*BOUNDARY
71, 1, 1, 0.0000000000
71, 2, 2, -39.9181560274
71, 3, 3, 65.5678270872
72, 1, 1, 0.0000000000
72, 2, 2, -39.9181560274
72, 3, 3, 65.5678270872
73, 1, 1, 0.0000000000
73, 2, 2, -39.9181560274
73, 3, 3, 65.5678270872
*NODE PRINT, NSET=far_face, TOTALS=YES
RF
*NODE PRINT, NSET=centerline
U
*END STEP
*STEP, NLGEOM, INC=8000
*STATIC
0.005, 1.0, 1.E-8, 0.02
*BOUNDARY
71, 1, 1, 0.0000000000
71, 2, 2, -43.5746721206
71, 3, 3, 67.2450872135
72, 1, 1, 0.0000000000
72, 2, 2, -43.5746721206
72, 3, 3, 67.2450872135
73, 1, 1, 0.0000000000
73, 2, 2, -43.5746721206
73, 3, 3, 67.2450872135
*NODE PRINT, NSET=far_face, TOTALS=YES
RF
*NODE PRINT, NSET=centerline
U
*END STEP
*STEP, NLGEOM, INC=8000
*STATIC
0.005, 1.0, 1.E-8, 0.02
*BOUNDARY
71, 1, 1, 0.0000000000
71, 2, 2, -47.2919303152
71, 3, 3, 68.6904937667
72, 1, 1, 0.0000000000
72, 2, 2, -47.2919303152
72, 3, 3, 68.6904937667
73, 1, 1, 0.0000000000
73, 2, 2, -47.2919303152
73, 3, 3, 68.6904937667
*NODE PRINT, NSET=far_face, TOTALS=YES
RF
*NODE PRINT, NSET=centerline
U
*END STEP
*STEP, NLGEOM, INC=8000
*STATIC
0.005, 1.0, 1.E-8, 0.02
*BOUNDARY
71, 1, 1, 0.0000000000
71, 2, 2, -51.0541625358
71, 3, 3, 69.9019002128
72, 1, 1, 0.0000000000
72, 2, 2, -51.0541625358
72, 3, 3, 69.9019002128
73, 1, 1, 0.0000000000
73, 2, 2, -51.0541625358
73, 3, 3, 69.9019002128
*NODE PRINT, NSET=far_face, TOTALS=YES
RF
*NODE PRINT, NSET=centerline
U
*END STEP
*STEP, NLGEOM, INC=8000
*STATIC
0.005, 1.0, 1.E-8, 0.02
*BOUNDARY
71, 1, 1, 0.0000000000
71, 2, 2, -54.8455555330
71, 3, 3, 70.8782802226
72, 1, 1, 0.0000000000
72, 2, 2, -54.8455555330
72, 3, 3, 70.8782802226
73, 1, 1, 0.0000000000
73, 2, 2, -54.8455555330
73, 3, 3, 70.8782802226
*NODE PRINT, NSET=far_face, TOTALS=YES
RF
*NODE PRINT, NSET=centerline
U
*END STEP
*STEP, NLGEOM, INC=8000
*STATIC
0.005, 1.0, 1.E-8, 0.02
*BOUNDARY
71, 1, 1, 0.0000000000
71, 2, 2, -58.6503328434
71, 3, 3, 71.6197243914
72, 1, 1, 0.0000000000
72, 2, 2, -58.6503328434
72, 3, 3, 71.6197243914
73, 1, 1, 0.0000000000
73, 2, 2, -58.6503328434
73, 3, 3, 71.6197243914
*NODE PRINT, NSET=far_face, TOTALS=YES
RF
*NODE PRINT, NSET=centerline
U
*END STEP
*STEP, NLGEOM, INC=8000
*STATIC
0.005, 1.0, 1.E-8, 0.02
*BOUNDARY
71, 1, 1, 0.0000000000
71, 2, 2, -62.4528360662
71, 3, 3, 72.1274308353
72, 1, 1, 0.0000000000
72, 2, 2, -62.4528360662
72, 3, 3, 72.1274308353
73, 1, 1, 0.0000000000
73, 2, 2, -62.4528360662
73, 3, 3, 72.1274308353
*NODE PRINT, NSET=far_face, TOTALS=YES
RF
*NODE PRINT, NSET=centerline
U
*END STEP
*STEP, NLGEOM, INC=8000
*STATIC
0.005, 1.0, 1.E-8, 0.02
*BOUNDARY
71, 1, 1, 0.0000000000
71, 2, 2, -66.2376049922
71, 3, 3, 72.4036897472
72, 1, 1, 0.0000000000
72, 2, 2, -66.2376049922
72, 3, 3, 72.4036897472
73, 1, 1, 0.0000000000
73, 2, 2, -66.2376049922
73, 3, 3, 72.4036897472
*NODE PRINT, NSET=far_face, TOTALS=YES
RF
*NODE PRINT, NSET=centerline
U
*END STEP
*STEP, NLGEOM, INC=8000
*STATIC
0.005, 1.0, 1.E-8, 0.02
*BOUNDARY
71, 1, 1, 0.0000000000
71, 2, 2, -69.9894561281
71, 3, 3, 72.4518620297
72, 1, 1, 0.0000000000
72, 2, 2, -69.9894561281
72, 3, 3, 72.4518620297
73, 1, 1, 0.0000000000
73, 2, 2, -69.9894561281
73, 3, 3, 72.4518620297
*NODE PRINT, NSET=far_face, TOTALS=YES
RF
*NODE PRINT, NSET=centerline
U
*END STEP
*STEP, NLGEOM, INC=8000
*STATIC
0.005, 1.0, 1.E-8, 0.02
*BOUNDARY
71, 1, 1, 0.0000000000
71, 2, 2, -73.6935591726
71, 3, 3, 72.2763521595
72, 1, 1, 0.0000000000
72, 2, 2, -73.6935591726
72, 3, 3, 72.2763521595
73, 1, 1, 0.0000000000
73, 2, 2, -73.6935591726
73, 3, 3, 72.2763521595
*NODE PRINT, NSET=far_face, TOTALS=YES
RF
*NODE PRINT, NSET=centerline
U
*END STEP
*STEP, NLGEOM, INC=8000
*STATIC
0.005, 1.0, 1.E-8, 0.02
*BOUNDARY
71, 1, 1, 0.0000000000
71, 2, 2, -77.3355110131
71, 3, 3, 71.8825754692
72, 1, 1, 0.0000000000
72, 2, 2, -77.3355110131
72, 3, 3, 71.8825754692
73, 1, 1, 0.0000000000
73, 2, 2, -77.3355110131
73, 3, 3, 71.8825754692
*NODE PRINT, NSET=far_face, TOTALS=YES
RF
*NODE PRINT, NSET=centerline
U
*END STEP
*STEP, NLGEOM, INC=8000
*STATIC
0.005, 1.0, 1.E-8, 0.02
*BOUNDARY
71, 1, 1, 0.0000000000
71, 2, 2, -80.9014068290
71, 3, 3, 71.2769200674
72, 1, 1, 0.0000000000
72, 2, 2, -80.9014068290
72, 3, 3, 71.2769200674
73, 1, 1, 0.0000000000
73, 2, 2, -80.9014068290
73, 3, 3, 71.2769200674
*NODE PRINT, NSET=far_face, TOTALS=YES
RF
*NODE PRINT, NSET=centerline
U
*END STEP
*STEP, NLGEOM, INC=8000
*STATIC
0.005, 1.0, 1.E-8, 0.02
*BOUNDARY
71, 1, 1, 0.0000000000
71, 2, 2, -84.3779079078
71, 3, 3, 70.4667036452
72, 1, 1, 0.0000000000
72, 2, 2, -84.3779079078
72, 3, 3, 70.4667036452
73, 1, 1, 0.0000000000
73, 2, 2, -84.3779079078
73, 3, 3, 70.4667036452
*NODE PRINT, NSET=far_face, TOTALS=YES
RF
*NODE PRINT, NSET=centerline
U
*END STEP
*STEP, NLGEOM, INC=8000
*STATIC
0.005, 1.0, 1.E-8, 0.02
*BOUNDARY
71, 1, 1, 0.0000000000
71, 2, 2, -87.7523057994
71, 3, 3, 69.4601254523
72, 1, 1, 0.0000000000
72, 2, 2, -87.7523057994
72, 3, 3, 69.4601254523
73, 1, 1, 0.0000000000
73, 2, 2, -87.7523057994
73, 3, 3, 69.4601254523
*NODE PRINT, NSET=far_face, TOTALS=YES
RF
*NODE PRINT, NSET=centerline
U
*END STEP
*STEP, NLGEOM, INC=8000
*STATIC
0.005, 1.0, 1.E-8, 0.02
*BOUNDARY
71, 1, 1, 0.0000000000
71, 2, 2, -91.0125824594
71, 3, 3, 68.2662137467
72, 1, 1, 0.0000000000
72, 2, 2, -91.0125824594
72, 3, 3, 68.2662137467
73, 1, 1, 0.0000000000
73, 2, 2, -91.0125824594
73, 3, 3, 68.2662137467
*NODE PRINT, NSET=far_face, TOTALS=YES
RF
*NODE PRINT, NSET=centerline
U
*END STEP
*STEP, NLGEOM, INC=8000
*STATIC
0.005, 1.0, 1.E-8, 0.02
*BOUNDARY
71, 1, 1, 0.0000000000
71, 2, 2, -94.1474660586
71, 3, 3, 66.8947690544
72, 1, 1, 0.0000000000
72, 2, 2, -94.1474660586
72, 3, 3, 66.8947690544
73, 1, 1, 0.0000000000
73, 2, 2, -94.1474660586
73, 3, 3, 66.8947690544
*NODE PRINT, NSET=far_face, TOTALS=YES
RF
*NODE PRINT, NSET=centerline
U
*END STEP
*STEP, NLGEOM, INC=8000
*STATIC
0.005, 1.0, 1.E-8, 0.02
*BOUNDARY
71, 1, 1, 0.0000000000
71, 2, 2, -97.1464821601
71, 3, 3, 65.3563035926
72, 1, 1, 0.0000000000
72, 2, 2, -97.1464821601
72, 3, 3, 65.3563035926
73, 1, 1, 0.0000000000
73, 2, 2, -97.1464821601
73, 3, 3, 65.3563035926
*NODE PRINT, NSET=far_face, TOTALS=YES
RF
*NODE PRINT, NSET=centerline
U
*END STEP
*STEP, NLGEOM, INC=8000
*STATIC
0.005, 1.0, 1.E-8, 0.02
*BOUNDARY
71, 1, 1, 0.0000000000
71, 2, 2, -100.0000000000
71, 3, 3, 63.6619772368
72, 1, 1, 0.0000000000
72, 2, 2, -100.0000000000
72, 3, 3, 63.6619772368
73, 1, 1, 0.0000000000
73, 2, 2, -100.0000000000
73, 3, 3, 63.6619772368
*NODE PRINT, NSET=far_face, TOTALS=YES
RF
*NODE PRINT, NSET=centerline
U
*END STEP
