** Test fixture for run.py. NOT a regression case -- cases/smoke_cantilever is
** the case with a closed-form expected value, and this is not it.
**
** 100 x 20 x 1 mm flat strip, 4 S8R elements, CFRP [0/90]s of 0.25 mm plies.
** Built in, driven 20 mm transversely (DOF 3) at the free-edge mid node under
** displacement control. Converges in 22 increments in about a second.
**
** Two things this deck cannot do, checked and recorded rather than fixed:
** the stack is symmetric, so reversing the ply order gives a byte-identical
** result -- layup.py needs an unsymmetric fixture to catch ply-order bugs.
** And only the free-edge midside node is driven, which lets a stiff layup
** ([0]4) find an edge instability and diverge at 0.679; the sweep's load case
** must not inherit this BC or it will manufacture failures for stiff layups.
**
** Units: mm, N, tonne, MPa, s. Moduli MPa, density tonne/mm^3.
** Ply angles are *ORIENTATION names, not degrees -- ccx reads field 4 of a
** composite ply line as an orientation name.
*NODE, NSET=all_nodes
1, 0.000000, 0.000000, 0.000000
2, 12.500000, 0.000000, 0.000000
3, 25.000000, 0.000000, 0.000000
4, 37.500000, 0.000000, 0.000000
5, 50.000000, 0.000000, 0.000000
6, 62.500000, 0.000000, 0.000000
7, 75.000000, 0.000000, 0.000000
8, 87.500000, 0.000000, 0.000000
9, 100.000000, 0.000000, 0.000000
10, 0.000000, 10.000000, 0.000000
11, 25.000000, 10.000000, 0.000000
12, 50.000000, 10.000000, 0.000000
13, 75.000000, 10.000000, 0.000000
14, 100.000000, 10.000000, 0.000000
15, 0.000000, 20.000000, 0.000000
16, 12.500000, 20.000000, 0.000000
17, 25.000000, 20.000000, 0.000000
18, 37.500000, 20.000000, 0.000000
19, 50.000000, 20.000000, 0.000000
20, 62.500000, 20.000000, 0.000000
21, 75.000000, 20.000000, 0.000000
22, 87.500000, 20.000000, 0.000000
23, 100.000000, 20.000000, 0.000000
*ELEMENT, TYPE=S8R, ELSET=blade
1, 1, 3, 17, 15, 2, 11, 16, 10
2, 3, 5, 19, 17, 4, 12, 18, 11
3, 5, 7, 21, 19, 6, 13, 20, 12
4, 7, 9, 23, 21, 8, 14, 22, 13
*NSET, NSET=fixed_end
1, 10, 15
*NSET, NSET=load_ref
14
*MATERIAL, NAME=cfrp
*ELASTIC, TYPE=ENGINEERING CONSTANTS
135000., 9000., 9000., 0.30, 0.30, 0.45, 4500., 4500.,
3000.,
*DENSITY
1.6E-9
*ORIENTATION, NAME=ori_p00, SYSTEM=RECTANGULAR
1., 0., 0., 0., 1., 0.
*ORIENTATION, NAME=ori_p90, SYSTEM=RECTANGULAR
0., 1., 0., -1., 0., 0.
*SHELL SECTION, COMPOSITE, ELSET=blade
0.25, , cfrp, ori_p00
0.25, , cfrp, ori_p90
0.25, , cfrp, ori_p90
0.25, , cfrp, ori_p00
*BOUNDARY
fixed_end, 1, 6
*STEP, NLGEOM, INC=2000
*STATIC
0.02, 1.0, 1.E-5, 0.05
*BOUNDARY
load_ref, 3, 3, 20.0
*NODE PRINT, NSET=fixed_end, TOTALS=YES
RF
*END STEP
